LAMMPS (29 Aug 2024 - Update 1)
Loaded 1 plugins from /data/home/wzu23cj/anaconda3/envs/deepmdkit_tf_lm/lib/python3.10/site-packages/deepmd/lib
# graphane : Calculating the stress vs strain at a fixed temperature. Refer: https://www.linkedin.com/pulse/how-perform-uniaxial-tensile-tests-graphene-sample-lammps-dewapriya/ for the whole example

##---------------INITIALIZATION-------------------------------

units           metal
dimension	3
boundary        p p f
atom_style      atomic
newton		on

##---------------ATOM DEFINITION------------------------------

#neighbor        2.0 bin
#neigh_modify    every 10 delay 0 check no

read_data	BN4096.data
Reading data file ...
  triclinic box = (0 0 0) to (160.79359 69.625669 20) with tilt (-40.198399 0 0)
  reading atoms ...
  4096 atoms
mass 1 10.811  # B
mass 2 14.007  # N

pair_style	deepmd BNcompress.pb
Summary of lammps deepmd module ...
  >>> Info of deepmd-kit:
  installed to:       /tmp/tmptbpe6tn3/wheel/platlib
  source:             v3.0.3
  source branch:      HEAD
  source commit:      e7eb16e1
  source commit at:   2025-05-23 23:43:28 +0800
  support model ver.: 1.1
  build variant:      cuda
  build with tf inc:  /tmp/build-env-85oudwf8/lib/python3.11/site-packages/tensorflow/include/;/tmp/build-env-85oudwf8/lib/python3.11/site-packages/tensorflow/include/
  build with tf lib:  /tmp/build-env-85oudwf8/lib/python3.11/site-packages/tensorflow/libtensorflow_cc.so.2
  set tf intra_op_parallelism_threads: 0
  set tf inter_op_parallelism_threads: 0
  >>> Info of lammps module:
  use deepmd-kit at:  /tmp/tmptbpe6tn3/wheel/platlib
  source:             v3.0.3
  source branch:      HEAD
  source commit:      e7eb16e1
  source commit at:   2025-05-23 23:43:28 +0800
  build with inc:     /tmp/build-env-85oudwf8/lib/python3.11/site-packages/torch/include;/tmp/build-env-85oudwf8/lib/python3.11/site-packages/torch/include/torch/csrc/api/include
  build with lib:     /tmp/build-env-85oudwf8/lib/python3.11/site-packages/tensorflow;/tmp/build-env-85oudwf8/lib/python3.11/site-packages/torch/lib
pair_coeff  	* *

##---------------SETTINGS-------------------------------------

timestep        0.001
variable        ts equal 0.001

#compute         1 all stress/atom NULL
compute 1 all centroid/stress/atom NULL
compute         2 all reduce sum c_1[1] c_1[2]

variable        Lx equal lx
variable        Ly equal ly
variable        Lz equal lz
variable        Vol equal vol

variable        thickn equal 6.4

fix		1 all npt temp 300 300 0.05 x 0 0 0.5 y 0 0 0.5

#-mmmmmmmmmmmmm-- fix temp to 300 with temperature damping of 0.05; x and y are external stress tensor component: starts from 0 to 0.5 bars

thermo		2000

##---------------RELAXATION------------------------------------

run		50000

CITE-CITE-CITE-CITE-CITE-CITE-CITE-CITE-CITE-CITE-CITE-CITE-CITE

Your simulation uses code contributions which should be cited:

- Type Label Framework: https://doi.org/10.1021/acs.jpcb.3c08419

@Article{Gissinger24,
 author = {Jacob R. Gissinger, Ilia Nikiforov, Yaser Afshar, Brendon Waters, Moon-ki Choi, Daniel S. Karls, Alexander Stukowski, Wonpil Im, Hendrik Heinz, Axel Kohlmeyer, and Ellad B. Tadmor},
 title = {Type Label Framework for Bonded Force Fields in LAMMPS},
 journal = {J. Phys. Chem. B},
 year =    2024,
 volume =  128,
 number =  13,
 pages =   {3282â€“-3297}
}

- USER-DEEPMD package:

@article{Wang_ComputPhysCommun_2018_v228_p178,
  author = {Wang, Han and Zhang, Linfeng and Han, Jiequn and E, Weinan},
  doi = {10.1016/j.cpc.2018.03.016},
  url = {https://doi.org/10.1016/j.cpc.2018.03.016},
  year = 2018,
  month = {jul},
  publisher = {Elsevier {BV}},
  volume = 228,
  journal = {Comput. Phys. Commun.},
  title = {{DeePMD-kit: A deep learning package for many-body potential energy representation and molecular dynamics}},
  pages = {178--184}
}
@article{Zeng_JChemPhys_2023_v159_p054801,
  title  = {{DeePMD-kit v2: A software package for deep potential models}},
  author =   {Jinzhe Zeng and Duo Zhang and Denghui Lu and Pinghui Mo and Zeyu Li
         and Yixiao Chen and Mari{\'a}n Rynik and Li'ang Huang and Ziyao Li and
         Shaochen Shi and Yingze Wang and Haotian Ye and Ping Tuo and Jiabin
         Yang and Ye Ding and Yifan Li and Davide Tisi and Qiyu Zeng and Han
         Bao and Yu Xia and Jiameng Huang and Koki Muraoka and Yibo Wang and
         Junhan Chang and Fengbo Yuan and Sigbj{\o}rn L{\o}land Bore and Chun
         Cai and Yinnian Lin and Bo Wang and Jiayan Xu and Jia-Xin Zhu and
         Chenxing Luo and Yuzhi Zhang and Rhys E A Goodall and Wenshuo Liang
         and Anurag Kumar Singh and Sikai Yao and Jingchao Zhang and Renata
         Wentzcovitch and Jiequn Han and Jie Liu and Weile Jia and Darrin M
         York and Weinan E and Roberto Car and Linfeng Zhang and Han Wang},
  journal =  {J. Chem. Phys.},
  volume =   159,
  issue =    5,
  year =    2023,
  pages  =   054801,
  doi =      {10.1063/5.0155600},
}
@Article{Zeng_arXiv_2025_p2502.19161,
  annote       = {general purpose},
    author =   {Jinzhe Zeng and Duo Zhang and Anyang Peng and Xiangyu Zhang and Sensen
             He and Yan Wang and Xinzijian Liu and Hangrui Bi and Yifan Li and Chun
             Cai and Chengqian Zhang and Yiming Du and Jia-Xin Zhu and Pinghui Mo
             and Zhengtao Huang and Qiyu Zeng and Shaochen Shi and Xuejian Qin and
             Zhaoxi Yu and Chenxing Luo and Ye Ding and Yun-Pei Liu and Ruosong Shi
             and Zhenyu Wang and Sigbj{\o}rn L{\o}land Bore and Junhan Chang and
             Zhe Deng and Zhaohan Ding and Siyuan Han and Wanrun Jiang and Guolin
             Ke and Zhaoqing Liu and Denghui Lu and Koki Muraoka and Hananeh Oliaei
             and Anurag Kumar Singh and Haohui Que and Weihong Xu and Zhangmancang
             Xu and Yong-Bin Zhuang and Jiayu Dai and Timothy J. Giese and Weile
             Jia and Ben Xu and Darrin M. York and Linfeng Zhang and Han Wang},
    title =    {{DeePMD-kit v3: A Multiple-Backend Framework for Machine Learning
             Potentials}},
    journal =  {arXiv},
    year =     2025,
    pages =    {2502.19161},
    doi =      {10.48550/arXiv.2502.19161},
}

- compute centroid/stress/atom for angles, impropers and dihedrals: doi:10.1103/PhysRevE.99.051301

@article{Surblys2019,
 title = {Application of Atomic Stress to Compute Heat Flux via Molecular
    Dynamics for Systems With Many-Body Interactions},
 author = {Surblys, Donatas and Matsubara, Hiroki and Kikugawa, Gota and Ohara, Taku},
 journal = {Physical Review~E},
 volume = {99},
 issue = {5},
 pages = {051301},
 year = {2019},
 doi = {10.1103/PhysRevE.99.051301},
 url = {https://link.aps.org/doi/10.1103/PhysRevE.99.051301}
}

- compute centroid/stress/atom for constrained dynamics: doi:10.1063/5.0070930

@article{Surblys2021,
 author = {Surblys, Donatas and Matsubara, Hiroki and Kikugawa, Gota and Ohara, Taku},
 journal = {Journal of Applied Physics},
 title = {Methodology and Meaning of Computing Heat Flux via Atomic Stress in Systems with
    Constraint Dynamics},
 volume = {130},
 number = {21},
 pages = {215104},
 year = {2021},
 doi = {10.1063/5.0070930},
 url = {https://doi.org/10.1063/5.0070930},
}

CITE-CITE-CITE-CITE-CITE-CITE-CITE-CITE-CITE-CITE-CITE-CITE-CITE

Generated 0 of 1 mixed pair_coeff terms from geometric mixing rule
Step          Temp          E_pair         E_mol          TotEng         Press          Volume
0   0             -36031.044      0             -36031.044      13032.407      223907.23
Averages over the last 13 of 26 rows, steps 26000 to 50000:
Temp E_pair E_mol TotEng Press Volume
297.274 -35896.3 0 -35739 26.0637 228969
Loop time of 407.956 on 1 procs for 50000 steps with 4096 atoms

##---------------DEFORMATION-----------------------------------

unfix		1
reset_timestep	0

fix		1 all npt temp 300 300 0.05 x 0 0 0.5

fix             2 all ave/time 1 100 100 c_2[1] c_2[2]
fix             3 all ave/time 1 100 100 v_Lx v_Ly v_Lz v_Vol

variable        srate equal 1.0e8
variable        srate1 equal "v_srate / 1.0e12"

fix		4 all deform 1 y erate 0.0001 units box remap x
run		100
Generated 0 of 1 mixed pair_coeff terms from geometric mixing rule
Step          Temp          E_pair         E_mol          TotEng         Press          Volume
0   293.62847     -35896.836      0             -35741.412      181.16782      228896.34
Loop time of 0.862451 on 1 procs for 100 steps with 4096 atoms

##---------------THERMO-OUTPUTS--------------------------------

variable        CorVol equal f_3[4]*v_thickn/(f_3[3])
variable        ConvoFac equal 1/1.0e4
variable        sigmaxx equal f_2[1]*v_ConvoFac/v_CorVol
variable        sigmayy equal f_2[2]*v_ConvoFac/v_CorVol

variable        StrainPerTs equal v_srate1*v_ts
variable   	strain equal v_StrainPerTs*step
thermo		1000
thermo_style	custom step temp v_strain v_sigmaxx v_sigmayy pe ke lx ly vol
thermo_modify lost ignore

##---------------DEFORMATION-----------------------------------

dump		1 all atom 5000 tensile_test.lammpstrj
run		3000000
Generated 0 of 1 mixed pair_coeff terms from geometric mixing rule
Step          Temp         v_strain      v_sigmaxx      v_sigmayy        PotEng         KinEng           Lx             Ly           Volume
100   303.19278      1e-05          0.0063204524  -0.26449605    -35895.562      160.48609      162.6454       70.358967      228871.24
Averages over the last 1501 of 3002 rows, steps 1501000 to 3000100:
Temp v_strain v_sigmaxx v_sigmayy PotEng KinEng Lx Ly Volume
299.975 0.2251 0.000130089 0.430391 -35825.4 158.783 162.223 86.1961 279656
Loop time of 26587.1 on 1 procs for 3000000 steps with 4096 atoms
